examples/national_grid/data/ireland/models/s07.raw
<!DOCTYPE HTML PUBLIC "-//W3C//DTD HTML 4.0 Transitional//EN">
<!-- saved from url=(0069)http://www.eirgrid.com/EirgridPortal/uploads/Publications/s07_web.raw -->
<HTML><HEAD>
<META http-equiv=Content-Type content="text/html; charset=windows-1252">
<META content="MSHTML 6.00.2900.3492" name=GENERATOR></HEAD>
<BODY><PRE>0,   100.00          / PSS/E-29.4    THU, JUL 22 2004  14:42
ESB NATIONAL GRID FORECAST STATEMENT 2004-2010
BASECASE SUMMER 2007
   10,'F_M_____',  38.0000,1,     0.000,     0.000,   1,   1,1.03503, -11.4965,   2
   11,'FMN_LOOP',  38.0000,1,     0.000,     0.000,   1,   1,1.04779,  -9.4543,   2
   12,'BEDFORD ',  38.0000,1,     0.000,     0.000,   1,   1,1.03400, -12.4039,   2
   13,'M_R_____',  38.0000,1,     0.000,     0.000,   1,   1,1.05324, -11.9780,   2
   14,'F_I_____',  38.0000,1,     0.000,     0.000,   1,   1,1.05177, -12.4949,   2
   15,'I_M_____',  38.0000,1,     0.000,     0.000,   1,   1,1.04986, -11.4487,   2
   41,'TANEY   ', 110.0000,1,     0.000,     0.000,   1,   1,1.05968,  -7.0678,   1
   51,'MISERY H', 110.0000,1,     0.000,     0.000,   1,   1,1.06861,  -5.9952,   1
   52,'MISERY H',  38.0000,1,     0.000,     0.000,   1,   1,1.06861,  -5.9952,   1
 1021,'ARDNACRU', 110.0000,1,     0.000,     0.000,   7,   1,1.03000,  -8.3385,   1
 1041,'AGHADA  ', 110.0000,1,     0.000,     0.000,   3,   1,1.06411,  -9.2350,   1
 1042,'AGHADA  ', 220.0000,1,     0.000,     0.000,   3,   1,1.07500,  -7.0758,   1
 1061,'ARIGNA  ', 110.0000,1,     0.000,     0.000,   9,   1,1.04910,  -8.1473,   2
 1081,'AHANE   ', 110.0000,1,     0.000,     0.000,   7,   1,1.04481,  -8.1789,   2
 1101,'ANNER   ', 110.0000,1,     0.000,     0.000,   5,   3,1.05108, -13.2341,   5
 1121,'ARKLOW  ', 110.0000,1,     0.000,     0.000,   6,   1,1.06800,  -5.9858,   1
 1122,'ARKLOW  ', 220.0000,1,     0.000,     0.000,   6,   1,1.06112,  -4.8199,   1
 1141,'ATHLONE ', 110.0000,1,     0.000,     0.000,   8,   1,1.06574,  -6.4535,   1
 1151,'ARKLOW B', 110.0000,2,     0.000,     0.000,   6,   1,1.07125,  -5.7288,   1
 1161,'AUGHINIS', 110.0000,1,     0.000,     0.000,   7,   3,1.07500,  -2.5530,   1
 1171,'SEALROCK', 110.0000,1,     0.000,     0.000,   7,   1,1.07579,  -2.5010,   1
 1181,'ARVA    ', 110.0000,1,     0.000,     0.000,  10,   1,1.03445,  -9.1598,   1
 1191,'SEALROCK', 110.0000,1,     0.000,     0.000,   7,   1,1.07579,  -2.5010,   1
 1201,'ARTANE  ', 110.0000,1,     0.000,     0.000,   1,   1,1.05204,  -6.6453,   2
 1221,'ATHY    ', 110.0000,1,     0.000,     0.000,   8,   1,1.04382,  -7.5763,   1
 1231,'BALLYWAT', 110.0000,2,     0.000,     0.000,   6,   1,1.05203,  -9.1136,   1
 1251,'BOOLTIAG', 110.0000,2,     0.000,     0.000,   7,   1,1.02152,  -7.5638,   1
 1281,'BALLYLIC', 110.0000,1,     0.000,     0.000,   3,   1,1.04277, -11.6255,   2
 1301,'BALLYBEG', 110.0000,1,     0.000,     0.000,   6,   1,1.06109,  -5.9332,   1
 1321,'BLAKE   ', 110.0000,1,     0.000,     0.000,   8,   1,1.04826,  -5.9799,   2
 1341,'BINBANE ', 110.0000,1,     0.000,     0.000,   9,   1,1.01441, -11.2848,   2
 1361,'BALLYDIN', 110.0000,1,     0.000,     0.000,   5,   1,1.05118, -12.4862,   1
 1381,'BARNAHEL', 110.0000,1,     0.000,     0.000,   3,   1,1.06655, -10.1575,   1
 1401,'BELLACOR', 110.0000,1,     0.000,     0.000,   9,   1,1.04661, -10.1278,   1
 1421,'BLACKROC', 110.0000,1,     0.000,     0.000,   2,   2,1.05963,  -5.1228,   2
 1441,'BANDON  ', 110.0000,1,     0.000,     0.000,   3,   1,1.04935, -11.6665,   1
 1461,'BARRYMOR', 110.0000,1,     0.000,     0.000,   5,   1,1.05497, -11.4796,   2
 1481,'BUTLERST', 110.0000,1,     0.000,     0.000,   5,   1,1.04902, -11.1045,   1
 1501,'BRINNY  ', 110.0000,1,     0.000,     0.000,   3,   1,1.04921, -11.6749,   5
 1511,'BRINNY  ', 110.0000,1,     0.000,     0.000,   3,   1,1.04922, -11.6745,   5
 1541,'BANOGE  ', 110.0000,1,     0.000,     0.000,   6,   1,1.05485,  -7.8589,   1
 1581,'CABRA   ', 110.0000,1,     0.000,     0.000,   1,   2,1.05137,  -6.6751,   2
 1601,'CLASHAVO', 110.0000,1,     0.000,     0.000,   3,   1,1.05065,  -9.2702,   1
 1602,'CLASHAVO', 220.0000,1,     0.000,     0.000,   3,   1,1.06427,  -5.8901,   1
 1621,'COOLROE ', 110.0000,1,     0.000,     0.000,   3,   1,1.05346, -10.4794,   1
 1631,'CORDERRY', 110.0000,1,     0.000,     0.000,   9,   1,1.04809,  -8.3855,   1
 1641,'CASHLA  ', 110.0000,1,     0.000,     0.000,   9,   1,1.06740,  -3.5248,   1
 1642,'CASHLA  ', 220.0000,1,     0.000,     0.000,   9,   1,1.06695,  -0.0703,   1
 1661,'CASTLEBA', 110.0000,1,     0.000,     0.000,   9,   1,1.05408,  -9.1611,   1
 1681,'CARRIGAD', 110.0000,1,     0.000,     0.000,   3,   1,1.05156, -10.2108,   1
 1701,'CATH_FAL', 110.0000,1,     0.000,     0.000,   9,   1,1.04000, -10.2420,   1
 1721,'CAHIR   ', 110.0000,1,     0.000,     0.000,   5,   1,1.05998, -12.9973,   1
 1741,'CARRICKM', 110.0000,1,     0.000,     0.000,   2,   2,1.06043,  -5.0331,   2
 1742,'CARRICKM', 220.0000,1,     0.000,     0.000,   2,   2,1.07314,  -2.3270,   1
 1761,'CLIFF   ', 110.0000,1,     0.000,     0.000,   9,   1,1.04090, -10.2043,   1
 1781,'CASTLEFA', 110.0000,1,     0.000,     0.000,   7,   3,1.07461,  -2.5711,   5
 1791,'CASTLEFA', 110.0000,1,     0.000,     0.000,   7,   3,1.07461,  -2.5711,   5
 1801,'COOKSTOW', 110.0000,1,     0.000,     0.000,   1,   2,1.05720,  -7.0680,   2
 1821,'CLOON   ', 110.0000,1,     0.000,     0.000,   9,   1,1.05626,  -5.6525,   2
 1841,'CRANE   ', 110.0000,1,     0.000,     0.000,   6,   1,1.04814,  -9.5448,   1
 1861,'CARRICK ', 110.0000,1,     0.000,     0.000,   9,   1,1.05340,  -7.8118,   1
 1871,'COLLEGE ', 110.0000,1,     0.000,     0.000,   2,   1,1.06425,  -5.3797,   1
 1881,'CHARLEVI', 110.0000,1,     0.000,     0.000,   3,   1,1.02639, -10.2342,   1
 1901,'CARLOW  ', 110.0000,1,     0.000,     0.000,   8,   1,1.04639,  -8.6316,   1
 1921,'COW CROS', 110.0000,1,     0.000,     0.000,   3,   1,1.06438, -10.0496,   1
 1931,'CUNGHILL', 110.0000,1,     0.000,     0.000,   9,   1,1.04587,  -9.4061,   4
 1941,'CUSHALIN', 110.0000,1,     0.000,     0.000,   8,   1,1.07500,  -2.3511,   1
 1961,'CASTLEVI', 110.0000,1,     0.000,     0.000,   3,   1,1.06323, -10.0485,   1
 1981,'CORRACLA', 110.0000,1,     0.000,     0.000,   9,   1,1.03635, -10.2049,   1
 2001,'CULLENAG', 110.0000,1,     0.000,     0.000,   5,   1,1.05613, -10.8051,   1
 2002,'CULLENAG', 220.0000,1,     0.000,     0.000,   5,   1,1.04497,  -8.3343,   1
 2021,'CITY WES', 110.0000,1,     0.000,     0.000,   1,   1,1.05831,  -7.0128,   2
 2041,'CORDUFF ', 110.0000,1,     0.000,     0.000,   2,   1,1.06508,  -5.3095,   1
 2042,'CORDUFF ', 220.0000,1,     0.000,     0.000,   2,   1,1.07284,  -2.7240,   1
 2081,'DUNKETTL', 110.0000,1,     0.000,     0.000,   3,   1,1.06323, -10.0485,   5
 2101,'DUNDALK ', 110.0000,1,     0.000,     0.000,  10,   1,1.04796,  -8.4193,   1
 2121,'DRUMLINE', 110.0000,1,     0.000,     0.000,   7,   1,1.01638,  -8.5585,   1
 2141,'DUNGARVA', 110.0000,1,     0.000,     0.000,   5,   1,1.04642, -11.2042,   1
 2161,'DOON    ', 110.0000,1,     0.000,     0.000,   5,   1,1.05166, -13.2008,   1
 2181,'DRYBRIDG', 110.0000,1,     0.000,     0.000,  10,   1,1.04672,  -7.7630,   1
 2202,'DUNSTOWN', 220.0000,1,     0.000,     0.000,   2,   1,1.07393,  -2.1493,   1
 2204,'DUNSTOWN', 380.0000,1,     0.000,     0.000,   2,   1,1.03137,   2.0849,   1
 2221,'DUNMANWA', 110.0000,1,     0.000,     0.000,   3,   1,1.04311, -11.6231,   1
 2231,'DERRYBRI', 110.0000,2,     0.000,     0.000,   9,   1,1.05373,  -5.3050,   1
 2241,'DALLOW  ', 110.0000,1,     0.000,     0.000,   5,   1,1.05891,  -5.3762,   2
 2261,'DERRYIRO', 110.0000,1,     0.000,     0.000,   2,   1,1.03852,  -7.4941,   1
 2281,'DALTON  ', 110.0000,1,     0.000,     0.000,   9,   1,1.06031,  -7.8940,   1
 2301,'DUNFIRTH', 110.0000,1,     0.000,     0.000,   2,   1,1.04751,  -6.9013,   2
 2321,'DRUMKEEN', 110.0000,1,     0.000,     0.000,   9,   1,1.03483, -10.8374,   1
 2361,'ENNIS   ', 110.0000,1,     0.000,     0.000,   7,   1,1.02234,  -7.7279,   1
 2481,'FASS EAS', 110.0000,1,     0.000,     0.000,   2,   2,1.05536,  -5.2726,   2
 2491,'FASS WES', 110.0000,1,     0.000,     0.000,   2,   2,1.05520,  -5.2702,   2
 2521,'FLAGFORD', 110.0000,1,     0.000,     0.000,   9,   1,1.05655,  -7.6582,   1
 2522,'FLAGFORD', 220.0000,1,     0.000,     0.000,   9,   1,1.04051,  -5.3169,   1
 2541,'FRN ST A', 110.0000,1,     0.000,     0.000,   1,   2,1.06749,  -6.0845,   2
 2551,'FRN ST B', 110.0000,1,     0.000,     0.000,   1,   2,1.06201,  -6.8000,   2
 2561,'FIN_URBA', 110.0000,1,     0.000,     0.000,   2,   2,1.05369,  -6.4789,   1
 2562,'FINGLAS ', 220.0000,1,     0.000,     0.000,   2,   2,1.07407,  -2.6331,   1
 2571,'FIN_RURA', 110.0000,1,     0.000,     0.000,   2,   2,1.06398,  -5.4057,   1
 2681,'GILRA   ', 110.0000,1,     0.000,     0.000,   9,   3,1.05771,  -7.9573,   2
 2701,'GLASMORE', 110.0000,1,     0.000,     0.000,   2,   2,1.04541,  -7.2330,   2
 2721,'GRIFFINR', 110.0000,1,     0.000,     0.000,   2,   2,1.06028,  -5.9558,   2
 2731,'GRIFFINR', 110.0000,1,     0.000,     0.000,   2,   1,1.06055,  -5.9373,   2
 2741,'GREAT IS', 110.0000,1,     0.000,     0.000,   6,   1,1.05495, -10.5273,   1
 2742,'GREAT IS', 220.0000,1,     0.000,     0.000,   6,   1,1.04252,  -7.7626,   1
 2761,'GRANGE  ', 110.0000,1,     0.000,     0.000,   1,   2,1.05259,  -6.6395,   2
 2781,'GALWAY  ', 110.0000,1,     0.000,     0.000,   9,   1,1.05670,  -4.0393,   1
 2801,'GOLAGH  ', 110.0000,1,     0.000,     0.000,   9,   1,1.03676, -10.4481,   1
 2821,'GORTAWEE', 110.0000,1,     0.000,     0.000,   9,   1,1.03729, -10.2215,   1
 2841,'GORMAN  ', 110.0000,1,     0.000,     0.000,  10,   1,1.05811,  -7.8828,   1
 2842,'GORMAN  ', 220.0000,1,     0.000,     0.000,  10,   1,1.03622,  -5.1834,   1
 2861,'GRANGE C', 110.0000,1,     0.000,     0.000,   1,   1,1.05922,  -7.0452,   2
 2881,'GLENLARA', 110.0000,1,     0.000,     0.000,   3,   1,1.01681, -10.7845,   2
 2921,'HAULBOWL', 110.0000,1,     0.000,     0.000,   3,   3,1.06775, -10.0886,   5
 2931,'HAULBOWL', 110.0000,1,     0.000,     0.000,   3,   3,1.06656, -10.1577,   5
 2941,'HAROLDS ', 110.0000,1,     0.000,     0.000,   1,   2,1.06793,  -6.0474,   2
 2962,'HUNTSTOW', 220.0000,1,     0.000,     0.000,   2,   1,1.07441,  -2.5310,   1
 2981,'HARNETTS', 110.0000,1,     0.000,     0.000,   3,   1,1.05063, -10.2686,   2
 3061,'INISCARR', 110.0000,1,     0.000,     0.000,   3,   1,1.05348, -10.4055,   1
 3081,'INCHICOR', 110.0000,1,     0.000,     0.000,   1,   2,1.06452,  -6.6337,   2
 3082,'INCHICOR', 220.0000,1,     0.000,     0.000,   2,   2,1.07292,  -3.0043,   1
 3101,'IKERRIN ', 110.0000,1,     0.000,     0.000,   5,   1,1.03666, -10.8536,   2
 3122,'IRISHTOW', 220.0000,1,     0.000,     0.000,   2,   1,1.07496,  -2.0500,   1
 3201,'KNOCKRAH', 110.0000,1,     0.000,     0.000,   3,   1,1.06512,  -9.8909,   1
 3202,'KNOCKRAH', 220.0000,1,     0.000,     0.000,   3,   1,1.06555,  -7.4881,   1
 3221,'KILBARRY', 110.0000,1,     0.000,     0.000,   3,   1,1.05661, -10.4184,   1
 3241,'KILTEEL ', 110.0000,1,     0.000,     0.000,   8,   1,1.04766,  -6.1634,   2
 3261,'KILKENNY', 110.0000,1,     0.000,     0.000,   8,   1,1.01452, -11.1250,   1
 3281,'KILLONAN', 110.0000,1,     0.000,     0.000,   7,   1,1.04528,  -8.1440,   1
 3282,'KILLONAN', 220.0000,1,     0.000,     0.000,   7,   1,1.05408,  -4.9346,   1
 3301,'KNOCKERA', 110.0000,1,     0.000,     0.000,   7,   1,1.01869,  -8.4714,   1
 3321,'KNOCKUMB', 110.0000,1,     0.000,     0.000,  10,   3,1.05057,  -8.2888,   5
 3341,'KELLIS  ', 110.0000,1,     0.000,     0.000,   8,   1,1.05077,  -8.5176,   1
 3342,'KELLIS  ', 220.0000,1,     0.000,     0.000,   8,   1,1.04426,  -5.8420,   1
 3361,'KILTOY  ', 110.0000,1,     0.000,     0.000,   9,   3,1.02964, -11.3608,   5
 3371,'KILTOY  ', 110.0000,1,     0.000,     0.000,   9,   3,1.02955, -11.3660,   5
 3381,'KINNEGAD', 110.0000,1,     0.000,     0.000,   2,   1,1.04044,  -7.4185,   1
 3401,'KILLOTER', 110.0000,1,     0.000,     0.000,   5,   1,1.04984, -11.0504,   1
 3421,'KILMORE ', 110.0000,1,     0.000,     0.000,   1,   1,1.05297,  -6.5891,   2
 3441,'KILMURRY', 110.0000,1,     0.000,     0.000,   8,   1,1.04675, -10.7711,   1
 3501,'LANESBOR', 110.0000,1,     0.000,     0.000,   9,   1,1.06500,  -5.8432,   1
 3521,'LOUTH   ', 110.0000,1,     0.000,     0.000,  10,   1,1.06502,  -7.6126,   1
 3522,'LOUTH   ', 220.0000,1,     0.000,     0.000,  10,   1,1.03325,  -5.6092,   1
 3541,'LIMERICK', 110.0000,1,     0.000,     0.000,   7,   1,1.03938,  -7.8307,   1
 3561,'LISDRUM ', 110.0000,1,     0.000,     0.000,  10,   1,1.02424,  -9.3087,   1
 3581,'LETTERKE', 110.0000,1,     0.000,     0.000,   9,   1,1.03074, -11.2913,   1
 3601,'LIBERTY ', 110.0000,1,     0.000,     0.000,   3,   1,1.05982, -10.3387,   2
 3611,'LIBERTY ', 110.0000,1,     0.000,     0.000,   3,   1,1.05995, -10.3263,   2
 3621,'LISHEEN ', 110.0000,1,     0.000,     0.000,   5,   1,1.03636, -13.1192,   1
 3761,'MACETOWN', 110.0000,1,     0.000,     0.000,   2,   2,1.06160,  -5.5926,   1
 3781,'MCDERMOT', 110.0000,1,     0.000,     0.000,   1,   2,1.05131,  -6.6860,   2
 3801,'MIDLETON', 110.0000,1,     0.000,     0.000,   3,   1,1.05787, -10.0581,   1
 3821,'MEATH HI', 110.0000,1,     0.000,     0.000,  10,   1,1.04824,  -8.3151,   2
 3841,'MAYNOOTH', 110.0000,1,     0.000,     0.000,   2,   2,1.06155,  -5.8383,   1
 3842,'MAYNOOTH', 220.0000,1,     0.000,     0.000,   2,   2,1.06793,  -3.1335,   1
 3861,'MILLTOWN', 110.0000,1,     0.000,     0.000,   1,   2,1.06868,  -5.9524,   2
 3871,'MILLTOWN', 110.0000,1,     0.000,     0.000,   1,   2,1.06003,  -7.0424,   2
 3881,'MACROOM ', 110.0000,1,     0.000,     0.000,   3,   1,1.05138, -10.2040,   1
 3901,'MONETEEN', 110.0000,1,     0.000,     0.000,   7,   1,1.04471,  -6.9550,   1
 3941,'MONEYPOI', 110.0000,1,     0.000,     0.000,   7,   1,1.01838,  -7.6700,   1
 3942,'MONEYPOI', 220.0000,1,     0.000,     0.000,   7,   1,1.07204,   1.9786,   1
 3944,'MNYPG1G3', 380.0000,1,     0.000,     6.000,   2,   1,1.07500,   8.5221,   1
 3954,'MNYPG2  ', 380.0000,1,     0.000,     6.000,   7,   1,1.07500,   6.7031,   1
 3961,'MARINA  ', 110.0000,1,     0.000,     0.000,   3,   1,1.06000, -10.3227,   1
 3981,'MUNGRET ', 110.0000,1,     0.000,     0.000,   7,   3,1.04451,  -6.9660,   5
 3991,'MUNGRET ', 110.0000,1,     0.000,     0.000,   7,   3,1.04452,  -6.9655,   5
 4001,'MULLINGA', 110.0000,1,     0.000,     0.000,   9,   1,1.03930,  -6.9747,   1
 4021,'MALLOW  ', 110.0000,1,     0.000,     0.000,   3,   1,1.03306, -10.6877,   1
 4041,'MOY     ', 110.0000,1,     0.000,     0.000,   9,   1,1.04460, -10.7363,   1
 4061,'MULLAGHA', 110.0000,1,     0.000,     0.000,  10,   1,1.05324,  -8.1792,   2
 4071,'MEENTYCA', 110.0000,2,     0.000,     0.000,   9,   1,1.03670, -10.6099,   1
 4081,'MONREAD ', 110.0000,1,     0.000,     0.000,   8,   1,1.04617,  -6.0657,   1
 4201,'NEWBRIDG', 110.0000,1,     0.000,     0.000,   8,   1,1.04733,  -5.6998,   1
 4221,'NAVAN   ', 110.0000,1,     0.000,     0.000,  10,   1,1.05404,  -8.0859,   1
 4242,'NORTH WA', 220.0000,1,     0.000,     0.000,   2,   2,1.07554,  -2.9014,   1
 4261,'NENAGH  ', 110.0000,1,     0.000,     0.000,   7,   1,1.02983,  -9.0068,   1
 4281,'NANGOR  ', 110.0000,1,     0.000,     0.000,   1,   1,1.05898,  -7.0618,   1
 4341,'OLDCOURT', 110.0000,1,     0.000,     0.000,   3,   3,1.06438, -10.0497,   5
 4351,'OLDCOURT', 110.0000,1,     0.000,     0.000,   3,   3,1.06438, -10.0497,   5
 4361,'OUGHTRAG', 110.0000,1,     0.000,     0.000,   7,   1,1.02729,  -6.9827,   2
 4382,'OLDSTREE', 220.0000,1,     0.000,     0.000,   9,   1,1.07116,   5.5614,   1
 4384,'OLDSTREE', 380.0000,1,     0.000,     0.000,   9,   1,1.06161,   5.4635,   1
 4441,'POLLAPHU', 110.0000,1,     0.000,     0.000,   8,   1,1.04234,  -9.1192,   1
 4451,'POOLBEG ', 110.0000,1,     0.000,     0.000,   1,   1,1.06959,  -5.8856,   2
 4461,'POOLBEG ', 110.0000,1,     0.000,     0.000,   1,   1,1.06989,  -5.7927,   2
 4462,'POOLBEG ', 220.0000,1,     0.000,     0.000,   2,   2,1.07500,  -3.0532,   1
 4471,'POOLBEG ', 110.0000,1,     0.000,     0.000,   1,   1,1.06989,  -5.7955,   2
 4481,'PORTLAOI', 110.0000,1,     0.000,     0.000,   8,   1,1.05087,  -5.9165,   1
 4501,'PLATIN  ', 110.0000,1,     0.000,     0.000,  10,   3,1.04819,  -7.6263,   1
 4522,'PROSPECT', 220.0000,1,     0.000,     0.000,   7,   1,1.07425,   0.7588,   1
 4621,'RYEBROOK', 110.0000,1,     0.000,     0.000,   2,   3,1.05222,  -6.3898,   1
 4651,'RINGSEND', 110.0000,1,     0.000,     0.000,   1,   2,1.06958,  -5.8854,   2
 4681,'RATHKEAL', 110.0000,1,     0.000,     0.000,   7,   1,1.04091,  -6.0990,   1
 4701,'RICHMOND', 110.0000,1,     0.000,     0.000,   9,   1,1.05322,  -6.3402,   2
 4721,'RAFFEEN ', 110.0000,1,     0.000,     0.000,   3,   1,1.06772, -10.0882,   1
 4722,'RAFFEEN ', 220.0000,1,     0.000,     0.000,   3,   1,1.06809,  -8.0417,   1
 4741,'RINAWADE', 110.0000,1,     0.000,     0.000,   2,   3,1.05621,  -6.1979,   1
 4761,'RINGASKI', 110.0000,1,     0.000,     0.000,   3,   1,1.06757, -10.0967,   2
 4781,'RATRUSSA', 110.0000,1,     0.000,     0.000,  10,   1,1.03535,  -8.2134,   1
 4901,'SHELTON ', 110.0000,1,     0.000,     0.000,   6,   3,1.06800,  -5.9858,   5
...
0 / END OF BUS DATA, BEGIN LOAD DATA
   10,'LD',1,   1,   1,    65.350,    25.080,     0.000,     0.000,     0.000,     0.000,   2
   11,'LD',1,   1,   1,    72.830,    16.630,     0.000,     0.000,     0.000,     0.000,   2
   12,'LD',1,   1,   1,    80.170,    16.520,     0.000,     0.000,     0.000,     0.000,   2
   13,'LD',1,   1,   1,    78.440,    21.690,     0.000,     0.000,     0.000,     0.000,   2
   14,'LD',1,   1,   1,    80.530,    20.860,     0.000,     0.000,     0.000,     0.000,   2
   15,'LD',1,   1,   1,    75.240,    26.170,     0.000,     0.000,     0.000,     0.000,   2
   41,'LD',1,   1,   1,    14.230,     5.420,     0.000,     0.000,     0.000,     0.000,   2
   51,'LD',1,   1,   1,     5.590,     1.750,     0.000,     0.000,     0.000,     0.000,   2
 1101,'LD',1,   5,   2,    11.000,     3.850,     0.000,     0.000,     0.000,     0.000,   5
 1101,'MI',0,   5,   2,     6.500,     1.950,     0.000,     0.000,     0.000,     0.000,   5
 1871,'LD',1,   2,   2,    16.000,     5.250,     0.000,     0.000,     0.000,     0.000,   5
 2821,'LD',1,   9,   2,    16.000,     5.550,     0.000,     0.000,     0.000,     0.000,   5
 2821,'MI',0,   9,   2,     6.000,     1.800,     0.000,     0.000,     0.000,     0.000,   5
 3321,'LD',1,  10,   2,    22.000,     7.480,     0.000,     0.000,     0.000,     0.000,   5
 3321,'MI',0,  10,   2,     1.000,     0.300,     0.000,     0.000,     0.000,     0.000,   5
 3421,'LD',1,   1,   2,    12.000,     4.060,     0.000,     0.000,     0.000,     0.000,   5
 3621,'LD',1,   5,   2,    15.000,     4.930,     0.000,     0.000,     0.000,     0.000,   5
 3621,'MI',0,   5,   2,     2.000,     0.600,     0.000,     0.000,     0.000,     0.000,   5
 4501,'LD',1,  10,   2,    27.000,     9.170,     0.000,     0.000,     0.000,     0.000,   5
 4501,'MI',0,  10,   2,     6.500,     1.950,     0.000,     0.000,     0.000,     0.000,   5
 5031,'LD',1,   2,   1,    11.580,     5.330,     0.000,     0.000,     0.000,     0.000,   2
10204,'LD',1,   7,   1,    15.680,     8.440,     0.000,     0.000,     0.000,     0.000,   2
10205,'LD',1,   7,   1,    49.540,    16.310,     0.000,     0.000,     0.000,     0.000,   2
10471,'LD',1,   3,   1,     9.660,     3.470,     0.000,     0.000,     0.000,     0.000,   3
10602,'LD',1,   9,   1,     6.030,     2.530,     0.000,     0.000,     0.000,     0.000,   2
10801,'LD',1,   7,   1,     6.030,     2.170,     0.000,     0.000,     0.000,     0.000,   2
11204,'LD',1,   6,   1,    15.100,     9.760,     0.000,     0.000,     0.000,     0.000,   2
11404,'LD',1,   9,   1,    49.200,    18.570,     0.000,     0.000,     0.000,     0.000,   2
11671,'LD',1,   7,   1,     1.530,     0.550,     0.000,     0.000,     0.000,     0.000,   1
11672,'LD',1,   7,   1,     1.530,     0.550,     0.000,     0.000,     0.000,     0.000,   4
12001,'LD',1,   1,   1,    11.090,     2.780,     0.000,     0.000,     0.000,     0.000,   2
12202,'LD',1,   8,   1,    13.330,     4.410,     0.000,     0.000,     0.000,     0.000,   2
12804,'LD',1,   3,   1,    12.060,     3.620,     0.000,     0.000,     0.000,     0.000,   2
13001,'LD',1,   6,   1,    14.930,     5.900,     0.000,     0.000,     0.000,     0.000,   2
13204,'LD',1,   8,   1,    16.620,     4.790,     0.000,     0.000,     0.000,     0.000,   2
13404,'LD',1,   9,   1,    21.950,    10.480,     0.000,     0.000,     0.000,     0.000,   2
13601,'LD',1,   5,   2,     5.900,     1.930,     0.000,     0.000,     0.000,     0.000,   5
13601,'MI',0,   5,   2,     1.590,     0.470,     0.000,     0.000,     0.000,     0.000,   5
13604,'LD',1,   5,   1,     3.500,     1.570,     0.000,     0.000,     0.000,     0.000,   2
13802,'LD',1,   3,   1,    27.490,     9.160,     0.000,     0.000,     0.000,     0.000,   2
13804,'LD',1,   3,   1,    26.290,     7.360,     0.000,     0.000,     0.000,     0.000,   2
14002,'LD',1,   9,   1,     5.180,     2.290,     0.000,     0.000,     0.000,     0.000,   2
14204,'LD',1,   2,   1,    43.170,     8.630,     0.000,     0.000,     0.000,     0.000,   2
14401,'LD',1,   3,   1,     8.970,     2.610,     0.000,     0.000,     0.000,     0.000,   2
14404,'LD',1,   3,   1,    22.380,     9.440,     0.000,     0.000,     0.000,     0.000,   2
14604,'LD',1,   5,   1,    31.710,     9.650,     0.000,     0.000,     0.000,     0.000,   2
14804,'LD',1,   5,   1,    31.590,    11.200,     0.000,     0.000,     0.000,     0.000,   2
15001,'LD',1,   3,   2,     4.200,     1.380,     0.000,     0.000,     0.000,     0.000,   5
15001,'MI',0,   3,   2,     2.290,     0.680,     0.000,     0.000,     0.000,     0.000,   5
15401,'LD',1,   6,   1,    13.490,     3.630,     0.000,     0.000,     0.000,     0.000,   2
15801,'LD',1,   1,   1,    14.830,     4.930,     0.000,     0.000,     0.000,     0.000,   2
16202,'LD',1,   3,   1,    10.730,     3.620,     0.000,     0.000,     0.000,     0.000,   2
16604,'LD',1,   9,   1,    46.640,    17.330,     0.000,     0.000,     0.000,     0.000,   2
17004,'LD',1,   9,   1,    13.260,     6.030,     0.000,     0.000,     0.000,     0.000,   2
17204,'LD',1,   5,   1,    20.240,     8.610,     0.000,     0.000,     0.000,     0.000,   2
17404,'LD',1,   2,   1,    62.700,    19.290,     0.000,     0.000,     0.000,     0.000,   2
17802,'LD',1,   7,   2,    44.000,    14.460,     0.000,     0.000,     0.000,     0.000,   5
17802,'MI',0,   7,   2,     5.000,     1.500,     0.000,     0.000,     0.000,     0.000,   5
18004,'LD',1,   1,   1,    69.690,    23.030,     0.000,     0.000,     0.000,     0.000,   2
18204,'LD',1,   9,   1,    19.680,     7.930,     0.000,     0.000,     0.000,     0.000,   2
18402,'LD',1,   6,   1,     3.380,     1.090,     0.000,     0.000,     0.000,     0.000,   2
18404,'LD',1,   6,   1,    14.360,     6.870,     0.000,     0.000,     0.000,     0.000,   2
18604,'LD',1,   9,   1,    34.380,    18.560,     0.000,     0.000,     0.000,     0.000,   2
18804,'LD',1,   3,   1,    13.770,     8.190,     0.000,     0.000,     0.000,     0.000,   2
19004,'LD',1,   8,   1,    41.130,    14.760,     0.000,     0.000,     0.000,     0.000,   2
19204,'LD',1,   3,   1,    17.970,     3.740,     0.000,     0.000,     0.000,     0.000,   2
19471,'LD',1,   8,   1,    11.670,     4.200,     0.000,     0.000,     0.000,     0.000,   4
19601,'LD',1,   3,   1,    13.630,     4.460,     0.000,     0.000,     0.000,     0.000,   2
20201,'LD',1,   1,   1,     9.530,     3.140,     0.000,     0.000,     0.000,     0.000,   2
21004,'LD',1,  10,   1,    56.670,    20.860,     0.000,     0.000,     0.000,     0.000,   2
21204,'LD',1,   7,   1,    38.810,    11.930,     0.000,     0.000,     0.000,     0.000,   2
21404,'LD',1,   5,   1,    24.240,     8.550,     0.000,     0.000,     0.000,     0.000,   2
21604,'LD',1,   5,   1,    29.780,     5.790,     0.000,     0.000,     0.000,     0.000,   2
21804,'LD',1,  10,   1,    61.010,    22.310,     0.000,     0.000,     0.000,     0.000,   2
22204,'LD',1,   3,   1,    34.000,    12.900,     0.000,     0.000,     0.000,     0.000,   2
22404,'LD',1,   5,   1,    10.730,     4.580,     0.000,     0.000,     0.000,     0.000,   2
22804,'LD',1,   9,   1,    15.290,     5.330,     0.000,     0.000,     0.000,     0.000,   2
23001,'LD',1,   2,   1,     6.040,     2.080,     0.000,     0.000,     0.000,     0.000,   2
23604,'LD',1,   7,   1,    48.710,    15.920,     0.000,     0.000,     0.000,     0.000,   2
24804,'LD',1,   2,   1,    45.820,    18.210,     0.000,     0.000,     0.000,     0.000,   2
25604,'LD',1,   2,   1,    94.410,    28.700,     0.000,     0.000,     0.000,     0.000,   2
26802,'LD',1,   9,   2,    12.000,     3.940,     0.000,     0.000,     0.000,     0.000,   5
26802,'MI',0,   9,   2,     2.000,     0.600,     0.000,     0.000,     0.000,     0.000,   5
27004,'LD',1,   2,   1,    33.990,     1.130,     0.000,     0.000,     0.000,     0.000,   2
27204,'LD',1,   2,   1,    47.250,     4.820,     0.000,     0.000,     0.000,     0.000,   2
27404,'LD',1,   6,   1,    13.260,     6.030,     0.000,     0.000,     0.000,     0.000,   2
27471,'LD',0,   6,   1,     3.000,     1.080,     0.000,     0.000,     0.000,     0.000,   3
27472,'LD',0,   6,   1,     3.000,     1.080,     0.000,     0.000,     0.000,     0.000,   3
27473,'LD',0,   6,   1,     8.040,     2.890,     0.000,     0.000,     0.000,     0.000,   3
27604,'LD',1,   1,   1,    36.780,    12.060,     0.000,     0.000,     0.000,     0.000,   2
27802,'LD',1,   9,   1,    11.580,     3.860,     0.000,     0.000,     0.000,     0.000,   2
27804,'LD',1,   9,   1,   100.920,    32.920,     0.000,     0.000,     0.000,     0.000,   2
28604,'LD',1,   1,   1,    12.320,     3.430,     0.000,     0.000,     0.000,     0.000,   2
28804,'LD',1,   3,   1,    11.590,     4.090,     0.000,     0.000,     0.000,     0.000,   2
29401,'LD',1,   1,   1,    14.230,     4.700,     0.000,     0.000,     0.000,     0.000,   2
29671,'LD',1,   2,   2,     6.900,     2.480,     0.000,     0.000,     0.000,     0.000,   4
29801,'LD',1,   3,   1,     8.590,     0.960,     0.000,     0.000,     0.000,     0.000,   2
30804,'LD',1,   1,   1,    88.970,    27.920,     0.000,     0.000,     0.000,     0.000,   2
31004,'LD',1,   5,   1,    24.720,    10.850,     0.000,     0.000,     0.000,     0.000,   2
31271,'LD',1,   2,   2,     6.980,     2.510,     0.000,     0.000,     0.000,     0.000,   4
32201,'LD',1,   3,   1,    10.610,     3.500,     0.000,     0.000,     0.000,     0.000,   2
32204,'LD',1,   3,   1,    70.540,    22.050,     0.000,     0.000,     0.000,     0.000,   2
32404,'LD',1,   8,   1,    15.510,     8.550,     0.000,     0.000,     0.000,     0.000,   2
32604,'LD',1,   8,   1,    56.430,    20.490,     0.000,     0.000,     0.000,     0.000,   2
33004,'LD',1,   7,   1,    45.750,    18.730,     0.000,     0.000,     0.000,     0.000,   2
33601,'LD',1,   9,   2,    18.000,     5.910,     0.000,     0.000,     0.000,     0.000,   5
33601,'MI',0,   9,   2,     4.000,     1.200,     0.000,     0.000,     0.000,     0.000,   5
33801,'LD',1,   2,   2,     7.700,     2.530,     0.000,     0.000,     0.000,     0.000,   5
33801,'MI',0,   2,   2,     2.290,     0.680,     0.000,     0.000,     0.000,     0.000,   5
34001,'LD',1,   5,   1,     9.650,     1.930,     0.000,     0.000,     0.000,     0.000,   2
34404,'LD',1,   8,   1,    18.330,     5.980,     0.000,     0.000,     0.000,     0.000,   2
35004,'LD',1,   9,   1,     7.840,     2.530,     0.000,     0.000,     0.000,     0.000,   2
35078,'LD',1,   9,   3,     8.600,     3.090,     0.000,     0.000,     0.000,     0.000,   3
35404,'LD',1,   7,   1,    61.370,    16.520,     0.000,     0.000,     0.000,     0.000,   2
35604,'LD',1,  10,   1,    28.090,    11.330,     0.000,     0.000,     0.000,     0.000,   2
35804,'LD',1,   9,   1,    44.370,    26.150,     0.000,     0.000,     0.000,     0.000,   2
36001,'LD',1,   3,   1,    15.920,     5.180,     0.000,     0.000,     0.000,     0.000,   2
37601,'LD',1,   2,   1,    12.180,     3.980,     0.000,     0.000,     0.000,     0.000,   2
37602,'LD',1,   2,   2,     5.000,     1.640,     0.000,     0.000,     0.000,     0.000,   5
37602,'MI',0,   2,   2,     6.000,     1.800,     0.000,     0.000,     0.000,     0.000,   5
38001,'LD',1,   3,   1,     6.620,     2.170,     0.000,     0.000,     0.000,     0.000,   2
38004,'LD',1,   3,   1,    26.180,     9.650,     0.000,     0.000,     0.000,     0.000,   2
38204,'LD',1,  10,   1,    39.790,    15.680,     0.000,     0.000,     0.000,     0.000,   2
38804,'LD',1,   3,   1,    10.220,     0.720,     0.000,     0.000,     0.000,     0.000,   2
39471,'LD',1,   9,   1,    18.950,     6.820,     0.000,     0.000,     0.000,     0.000,   3
39472,'LD',1,   2,   2,    20.000,     7.200,     0.000,     0.000,     0.000,     0.000,   3
39473,'LD',1,   7,   1,    18.950,     6.820,     0.000,     0.000,     0.000,     0.000,   3
39601,'LD',1,   3,   1,    23.270,     7.840,     0.000,     0.000,     0.000,     0.000,   2
39672,'LD',1,   3,   1,     2.560,     0.920,     0.000,     0.000,     0.000,     0.000,   3
39675,'LD',1,   3,   1,     4.090,     1.470,     0.000,     0.000,     0.000,     0.000,   3
39801,'LD',1,   7,   2,    20.000,     6.570,     0.000,     0.000,     0.000,     0.000,   5
39801,'MI',0,   7,   2,     7.000,     2.100,     0.000,     0.000,     0.000,     0.000,   5
40004,'LD',1,   9,   1,    33.280,    13.630,     0.000,     0.000,     0.000,     0.000,   2
40204,'LD',1,   3,   1,    18.980,     6.830,     0.000,     0.000,     0.000,     0.000,   2
40404,'LD',1,   9,   1,    26.520,     7.840,     0.000,     0.000,     0.000,     0.000,   2
40602,'LD',1,  10,   2,     8.000,     2.620,     0.000,     0.000,     0.000,     0.000,   5
40801,'LD',1,   8,   1,    12.830,     5.070,     0.000,     0.000,     0.000,     0.000,   2
42004,'LD',1,   8,   1,    38.200,    15.660,     0.000,     0.000,     0.000,     0.000,   2
42204,'LD',1,  10,   1,    49.200,    18.810,     0.000,     0.000,     0.000,     0.000,   2
42604,'LD',1,   7,   1,    16.770,     5.520,     0.000,     0.000,     0.000,     0.000,   2
42802,'LD',1,   1,   2,    26.000,     8.540,     0.000,     0.000,     0.000,     0.000,   5
43604,'LD',1,   7,   1,    19.410,     6.870,     0.000,     0.000,     0.000,     0.000,   2
44671,'LD',1,   2,   2,     3.050,     1.100,     0.000,     0.000,     0.000,     0.000,   3
44672,'LD',0,   2,   2,     5.520,     1.980,     0.000,     0.000,     0.000,     0.000,   3
44673,'LD',0,   2,   2,    13.500,     4.860,     0.000,     0.000,     0.000,     0.000,   3
44804,'LD',1,   8,   1,    29.150,     9.750,     0.000,     0.000,     0.000,     0.000,   2
46210,'LD',1,   2,   2,    24.000,     7.880,     0.000,     0.000,     0.000,     0.000,   5
46214,'LD',1,   2,   2,    21.400,     7.030,     0.000,     0.000,     0.000,     0.000,   5
46224,'LD',1,   2,   2,    31.000,    10.180,     0.000,     0.000,     0.000,     0.000,   5
46501,'LD',1,   1,   1,     4.460,     1.450,     0.000,     0.000,     0.000,     0.000,   2
46804,'LD',1,   7,   1,    28.940,     9.650,     0.000,     0.000,     0.000,     0.000,   2
47004,'LD',1,   9,   1,    25.440,    10.850,     0.000,     0.000,     0.000,     0.000,   2
47402,'LD',1,   2,   2,    16.000,     5.250,     0.000,     0.000,     0.000,     0.000,   5
47601,'LD',1,   3,   1,     2.760,     0.960,     0.000,     0.000,     0.000,     0.000,   2
47802,'LD',1,  10,   1,     0.730,     0.260,     0.000,     0.000,     0.000,     0.000,   4
49478,'LD',1,   5,   1,    12.520,     4.510,     0.000,     0.000,     0.000,     0.000,   3
49604,'LD',1,  10,   1,    67.160,    31.350,     0.000,     0.000,     0.000,     0.000,   2
49804,'LD',1,   9,   1,    43.530,    17.120,     0.000,     0.000,     0.000,     0.000,   2
50004,'LD',1,   9,   1,    27.370,    10.610,     0.000,     0.000,     0.000,     0.000,   2
50276,'LD',1,   2,   2,     9.520,     3.420,     0.000,     0.000,     0.000,     0.000,   3
50604,'LD',1,   8,   1,    17.460,     7.020,     0.000,     0.000,     0.000,     0.000,   2
51471,'LD',0,   7,   1,     3.000,     1.080,     0.000,     0.000,     0.000,     0.000,   3
51472,'LD',0,   7,   1,     3.000,     1.080,     0.000,     0.000,     0.000,     0.000,   3
51473,'LD',0,   7,   1,    15.300,     5.510,     0.000,     0.000,     0.000,     0.000,   3
51474,'LD',1,   7,   1,    13.030,     4.690,     0.000,     0.000,     0.000,     0.000,   3
51771,'LD',1,   9,   1,     6.990,     2.510,     0.000,     0.000,     0.000,     0.000,   4
51801,'LD',1,   1,   1,    13.260,     4.580,     0.000,     0.000,     0.000,     0.000,   2
51804,'LD',1,   3,   1,    38.340,     6.150,     0.000,     0.000,     0.000,     0.000,   2
52204,'LD',1,   7,   1,     8.560,     3.380,     0.000,     0.000,     0.000,     0.000,   2
52604,'LD',1,   7,   1,    27.490,    10.610,     0.000,     0.000,     0.000,     0.000,   2
52804,'LD',1,   7,   1,    44.610,    17.000,     0.000,     0.000,     0.000,     0.000,   2
53004,'LD',1,   5,   1,    26.530,     8.920,     0.000,     0.000,     0.000,     0.000,   2
53204,'LD',1,   2,   1,    28.340,    13.020,     0.000,     0.000,     0.000,     0.000,   2
53404,'LD',1,   9,   1,    12.160,     3.990,     0.000,     0.000,     0.000,     0.000,   2
53604,'LD',1,   9,   1,    11.700,     2.410,     0.000,     0.000,     0.000,     0.000,   2
53804,'LD',1,   5,   1,    16.150,     4.660,     0.000,     0.000,     0.000,     0.000,   2
54404,'LD',1,   5,   1,    24.340,     4.980,     0.000,     0.000,     0.000,     0.000,   2
54801,'LD',1,   3,   2,     0.500,     0.160,     0.000,     0.000,     0.000,     0.000,   5
54801,'MI',0,   3,   2,     7.910,     2.370,     0.000,     0.000,     0.000,     0.000,   5
55004,'LD',1,   6,   1,    43.280,    16.640,     0.000,     0.000,     0.000,     0.000,   2
55201,'LD',1,   1,   1,    33.400,    10.960,     0.000,     0.000,     0.000,     0.000,   2
0 / END OF LOAD DATA, BEGIN GENERATOR DATA
 1151,'1 ',    21.000,     0.000,     0.000,     0.000,1.00000,    0,    60.000,   0.00000,   0.20000,   0.00000,   0.10000,1.00000,1,  100.0,    60.000,     0.000,   1,1.0000
 1231,'1 ',    11.000,     0.000,     0.000,     0.000,1.00000,    0,    31.500,   0.00000,   0.20000,   0.00000,   0.00000,1.00000,1,  100.0,    31.500,     0.000,   4,1.0000
 1251,'1 ',     6.800,     0.000,     0.000,     0.000,1.00000,    0,    19.450,   0.00000,   0.20000,   0.00000,   0.10000,1.00000,1,  100.0,    19.450,     0.000,   1,1.0000
 2231,'1 ',    21.000,     0.000,     0.000,     0.000,1.00000,    0,    60.000,   0.00000,   0.20000,   0.00000,   0.00000,1.00000,1,  100.0,    60.000,     0.000,   1,1.0000
 4071,'1 ',    24.800,     0.000,     0.000,     0.000,1.00000,    0,    71.000,   0.00000,   0.20000,   0.00000,   0.00000,1.00000,1,  100.0,    70.960,     0.000,   1,1.0000
10204,'1 ',     0.900,     0.000,     0.000,     0.000,1.00000,    0,     2.550,   0.00000,   0.20000,   0.00000,   0.20000,1.00000,1,  100.0,     2.550,     0.000,   4,1.0000
10204,'2 ',     0.200,     0.000,     0.000,     0.000,1.00000,    0,     0.660,   0.00000,   0.20000,   0.00000,   0.00000,1.00000,1,  100.0,     0.660,     0.000,   4,1.0000
10271,'1 ',    15.000,    10.413,    15.000,    -7.000,1.03000, 1021,    34.000,   0.00000,   0.22000,   0.00000,   0.00000,1.00000,1,   15.0,    22.000,     5.000,   3,1.0000
10272,'2 ',    22.000,     0.000,    15.000,    -7.000,1.07500, 1021,    34.000,   0.00000,   0.22000,   0.00000,   0.00000,1.00000,0,   15.0,    22.000,     5.000,   3,1.0000
10273,'3 ',    22.000,     0.000,    15.000,    -7.000,1.07500, 1021,    30.000,   0.00000,   0.22000,   0.00000,   0.00000,1.00000,0,   15.0,    22.000,     5.000,   3,1.0000
10274,'4 ',    23.000,     0.000,    15.000,    -7.000,1.07500, 1021,    34.000,   0.00000,   0.22000,   0.00000,   0.00000,1.00000,0,   15.0,    23.000,     5.000,   3,1.0000
10471,'1 ',   214.700,   115.809,   153.000,   -53.000,1.07500, 1042,   318.800,   0.00000,   0.22500,   0.00000,   0.00000,1.00000,1,  153.0,   270.000,    40.000,   3,1.0000
10472,'11',    90.000,     0.000,    60.000,   -30.000,1.07500, 1042,   100.900,   0.00000,   0.12500,   0.00000,   0.00000,1.00000,0,   60.0,    90.000,    20.000,   3,1.0000
10473,'12',    90.000,     0.000,    60.000,   -30.000,1.07500, 1042,   100.900,   0.00000,   0.12500,   0.00000,   0.00000,1.00000,0,   60.0,    90.000,    20.000,   3,1.0000
10474,'14',    90.000,     0.000,    60.000,   -30.000,1.07500, 1042,   100.900,   0.00000,   0.12500,   0.00000,   0.00000,1.00000,0,   60.0,    90.000,    20.000,   3,1.0000
10602,'1 ',     0.400,    -0.180,    -0.180,    -0.180,1.05000,    0,     1.200,   0.00000,   0.20000,   0.00000,   0.20000,1.00000,1,  100.0,     1.200,     0.000,   4,1.0000
10602,'2 ',     1.700,    -0.740,    -0.740,    -0.740,1.05000,    0,     4.850,   0.00000,   0.20000,   0.00000,   0.20000,1.00000,1,  100.0,     4.850,     0.000,   4,1.0000
10602,'3 ',     1.800,    -0.760,    -0.760,    -0.760,1.05000,    0,     5.000,   0.00000,   0.20000,   0.00000,   0.20000,1.00000,1,  100.0,     5.000,     0.000,   4,1.0000
11204,'1 ',     8.900,     0.000,     0.000,     0.000,1.05000,    0,    25.500,   0.00000,   0.20000,   0.00000,   0.20000,1.00000,1,  100.0,    25.500,     0.000,   2,1.0000
11671,'1 ',    76.500,    32.982,    50.000,   -35.000,1.07500, 1161,    93.750,   0.00000,   0.16500,   0.00000,   0.00000,1.00000,1,   50.0,    76.500,     0.000,   4,1.0000
11672,'2 ',    76.500,    32.982,    50.000,   -35.000,1.07500, 1161,    93.750,   0.00000,   0.16500,   0.00000,   0.00000,1.00000,1,   50.0,    76.500,     0.000,   4,1.0000
12804,'1 ',     3.000,     0.000,     0.000,     0.000,1.00000,    0,     8.500,   0.00000,   0.20000,   0.00000,   0.20000,1.00000,1,  100.0,     8.500,     0.000,   1,1.0000
12804,'2 ',     6.800,     0.000,     0.000,     0.000,1.00000,    0,    19.500,   0.00000,   0.20000,   0.00000,   0.00000,1.00000,1,  100.0,    19.500,     0.000,   1,1.0000
13404,'1 ',     0.200,     0.000,     0.000,     0.000,1.05000,    0,     0.660,   0.00000,   0.20000,   0.00000,   0.20000,1.00000,1,  100.0,     0.660,     0.000,   4,1.0000
14002,'3 ',     2.100,    -0.920,    -0.920,    -0.920,1.05000,    0,     6.000,   0.00000,   0.20000,   0.00000,   0.10000,1.00000,1,  100.0,     6.000,     0.000,   3,1.0000
14404,'1 ',     1.600,     0.000,     0.000,     0.000,1.00000,    0,     4.500,   0.00000,   0.20000,   0.00000,   0.00000,1.00000,1,  100.0,     4.500,     0.000,   2,1.0000
14604,'1 ',     0.000,     0.000,     1.000,    -1.000,1.05000,    0,     7.000,   0.00000,   0.15000,   0.00000,   0.10000,1.00000,0,    1.0,     0.000,     0.000,   5,1.0000
16302,'1 ',     1.200,     0.000,     0.000,     0.000,1.00000,    0,     3.400,   0.00000,   0.20000,   0.00000,   0.00000,1.00000,1,  100.0,     3.400,     0.000,   1,1.0000
16302,'2 ',     1.200,     0.000,     0.000,     0.000,1.00000,    0,     3.400,   0.00000,   0.20000,   0.00000,   0.00000,1.00000,1,  100.0,     3.400,     0.000,   1,1.0000
16302,'3 ',     2.400,     0.000,     0.000,     0.000,1.00000,    0,     6.800,   0.00000,   0.20000,   0.00000,   0.00000,1.00000,1,  100.0,     6.800,     0.000,   1,1.0000
16604,'1 ',     1.200,    -0.520,    -0.520,    -0.520,1.05000,    0,     3.400,   0.00000,   0.20000,   0.00000,   0.20000,1.00000,1,  100.0,     3.400,     0.000,   4,1.0000
16604,'2 ',     6.500,     0.000,     0.000,     0.000,1.05000,    0,    18.700,   0.00000,   0.20000,   0.00000,   0.20000,1.00000,1,  100.0,    18.700,     0.000,   4,1.0000
16873,'3 ',     8.000,     0.000,     7.000,    -1.000,1.07500, 1681,    11.500,   0.00000,   0.25000,   0.00000,   0.00000,1.00000,0,    7.0,     8.000,     2.000,   3,1.0000
17004,'4 ',     1.200,     0.000,     0.000,     0.000,1.05000,    0,     3.450,   0.00000,   0.20000,   0.00000,   0.20000,1.00000,1,  100.0,     3.400,     0.000,   2,1.0000
17004,'5 ',     1.100,    -0.470,    -0.470,    -0.470,1.05000,    0,     3.200,   0.00000,   0.20000,   0.00000,   0.20000,1.00000,1,  100.0,     3.100,     0.000,   4,1.0000
17073,'3 ',     8.000,     3.691,     7.000,   -10.000,1.04000, 1701,    30.000,   0.00000,   0.20000,   0.00000,   0.00000,1.00000,1,    7.0,    22.500,     5.000,   3,1.0000
17074,'4 ',    22.500,     0.000,     7.000,   -10.000,1.04000, 1701,    30.000,   0.00000,   0.20000,   0.00000,   0.00000,1.00000,0,    7.0,    22.500,     5.000,   3,1.0000
17671,'1 ',     5.000,     3.691,     7.000,    -3.000,1.04000, 1701,    12.500,   0.00000,   0.15000,   0.00000,   0.00000,1.00000,1,    7.0,    10.000,     3.000,   3,1.0000
17672,'2 ',    10.000,     0.000,     7.000,    -3.000,1.04000, 1701,    12.500,   0.00000,   0.13500,   0.00000,   0.00000,1.00000,0,    7.0,    10.000,     3.000,   3,1.0000
18404,'1 ',     1.800,     0.000,     0.000,     0.000,1.00000,    0,     5.200,   0.00000,   0.20000,   0.00000,   0.20000,1.00000,1,  100.0,     5.200,     0.000,   2,1.0000
19004,'1 ',     0.900,     0.000,     0.000,     0.000,1.05000,    0,     2.550,   0.00000,   0.25400,   0.00000,   0.10000,1.00000,1,  100.0,     2.550,     0.000,   2,1.0000
19402,'1 ',     8.300,   -10.561,     6.000,   -12.000,1.00000,    0,    25.000,   0.00000,   0.20000,   0.00000,   0.10000,1.00000,1,    6.0,    25.000,     0.000,   1,1.0000
19471,'1 ',   129.700,    30.738,    75.000,   -50.000,1.07500, 1941,   153.000,   0.00000,   0.15300,   0.00000,   0.00000,1.00000,1,   75.0,   130.000,    60.000,   4,1.0000
22204,'1 ',     1.600,    -0.700,    -0.700,    -0.700,1.00000,    0,     4.600,   0.00000,   0.20000,   0.00000,   0.20000,1.00000,1,  100.0,     4.600,     0.000,   3,1.0000
22204,'2 ',     2.100,    -0.920,    -0.920,    -0.920,1.00000,    0,     6.000,   0.00000,   0.20000,   0.00000,   0.20000,1.00000,1,  100.0,     6.000,     0.000,   3,1.0000
22204,'3 ',     2.100,     0.000,     0.000,     0.000,1.00000,    0,     5.950,   0.00000,   0.20000,   0.00000,   0.20000,1.00000,1,  100.0,     5.950,     0.000,   4,1.0000
27204,'5 ',     4.000,     0.000,     1.000,    -1.000,1.00000,    0,     5.000,   0.00000,   0.27000,   0.00000,   0.10000,1.00000,0,    1.0,     4.000,     0.000,   3,1.0000
27471,'1 ',    60.000,     0.000,    42.000,    -3.000,1.07500, 2741,    75.000,   0.00000,   0.16000,   0.00000,   0.00000,1.00000,0,   42.0,    60.000,    25.000,   3,1.0000
27472,'2 ',    60.000,     0.000,    40.000,    -3.000,1.07500, 2741,    75.000,   0.00000,   0.16000,   0.00000,   0.00000,1.00000,0,   40.0,    60.000,    25.000,   3,1.0000
27473,'3 ',   120.000,     0.000,    82.000,   -48.000,1.07500, 2742,   150.000,   0.00000,   0.14600,   0.00000,   0.00000,1.00000,0,   82.0,   120.000,    30.000,   3,1.0000
27804,'1 ',     1.200,    -0.500,    -0.500,    -0.500,1.00000,    0,     3.300,   0.00000,   0.20000,   0.00000,   0.20000,1.00000,1,  100.0,     3.300,     0.000,   4,1.0000
27804,'2 ',     0.200,     0.000,     0.000,     0.000,1.00000,    0,     0.675,   0.00000,   0.20000,   0.00000,   0.20000,1.00000,1,  100.0,     0.675,     0.000,   2,1.0000
28002,'1 ',     5.300,    -2.290,    -2.290,    -2.290,1.00000,    0,    15.000,   0.00000,   0.20000,   0.00000,   0.10000,1.00000,1,  100.0,    15.000,     0.000,   4,1.0000
29671,'CT',   230.000,    33.051,   173.000,  -106.000,1.07500, 4462,   288.000,   0.00000,   0.14500,   0.00000,   0.00000,1.00000,1,  173.0,   230.000,   138.000,   4,1.0000
29672,'ST',   120.000,    17.194,    90.000,   -47.000,1.07500, 4462,   150.000,   0.00000,   0.15500,   0.00000,   0.00000,1.00000,1,   90.0,   120.000,    89.000,   4,1.0000
30671,'1 ',    15.000,     0.000,    13.000,    -4.000,1.05600, 3061,    21.400,   0.00000,   0.16000,   0.00000,   0.00000,1.00000,0,    3.0,    15.000,     4.000,   3,1.0000
30671,'2 ',     1.000,     3.000,     3.000,    -1.000,1.05600, 3061,     5.700,   0.00000,   0.14000,   0.00000,   0.00000,1.00000,1,    3.0,     4.000,     1.000,   3,1.0000
31004,'1 ',     0.900,     0.000,     0.000,     0.000,1.00000,    0,     2.550,   0.00000,   0.20000,   0.00000,   0.20000,1.00000,1,  100.0,     2.550,     0.000,   2,1.0000
31271,'1 ',   399.000,    38.209,   200.000,  -114.000,1.07500, 4462,   500.000,   0.00000,   0.19000,   0.00000,   0.00000,1.00000,1,  200.0,   399.000,   163.000,   4,1.0000
32604,'1 ',     0.000,     0.000,     1.000,    -1.000,1.05000,    0,    15.000,   0.00000,   0.15000,   0.00000,   0.10000,1.00000,0,    1.0,     0.000,     0.000,   5,1.0000
33004,'1 ',     3.300,     0.000,     0.000,     0.000,1.00000,    0,     9.350,   0.00000,   0.20000,   0.00000,   0.20000,1.00000,1,  100.0,     9.350,     0.000,   2,1.0000
35078,'8 ',    99.600,    27.771,    62.000,   -40.000,1.06500, 3501,   118.000,   0.00000,   0.13700,   0.00000,   0.00000,1.00000,1,   62.0,   100.000,    40.000,   3,1.0000
35804,'1 ',     5.300,    -2.290,    -2.290,    -2.290,1.05000,    0,    15.000,   0.00000,   0.20000,   0.00000,   0.20000,1.00000,1,  100.0,    15.000,     0.000,   4,1.0000
35804,'2 ',     1.700,    -0.760,    -0.760,    -0.760,1.05000,    0,     5.300,   0.00000,   0.20000,   0.00000,   0.20000,1.00000,1,  100.0,     4.980,     0.000,   4,1.0000
35804,'3 ',     4.200,    -1.840,    -1.840,    -1.840,1.05000,    0,    12.000,   0.00000,   0.20000,   0.00000,   0.20000,1.00000,1,  100.0,    12.000,     0.000,   4,1.0000
35804,'4 ',     0.900,     0.000,     0.000,     0.000,1.05000,    0,     2.550,   0.00000,   0.20000,   0.00000,   0.20000,1.00000,1,  100.0,     2.550,     0.000,   4,1.0000
35804,'5 ',     0.900,     0.000,     0.000,     0.000,1.05000,    0,     2.550,   0.00000,   0.20000,   0.00000,   0.20000,1.00000,1,  100.0,     2.450,     0.000,   4,1.0000
38204,'1 ',     3.700,     0.000,     0.000,     0.000,1.00000,    0,    10.500,   0.00000,   0.20000,   0.00000,   0.20000,1.00000,1,  100.0,    10.500,     0.000,   4,1.0000
38204,'2 ',     1.600,     0.000,     0.000,     0.000,1.00000,    0,     4.500,   0.00000,   0.20000,   0.00000,   0.20000,1.00000,1,  100.0,     4.500,     0.000,   4,1.0000
39471,'1 ',   289.000,    65.788,   160.000,   -70.000,1.07500, 3944,   359.000,   0.00000,   0.17900,   0.00000,   0.00000,1.00000,1,  160.0,   305.000,   115.000,   3,1.0000
39472,'2 ',   305.000,    18.407,   160.000,   -70.000,1.07500, 3954,   359.000,   0.00000,   0.17900,   0.00000,   0.00000,1.00000,1,  160.0,   305.000,   115.000,   3,1.0000
39473,'3 ',   289.000,    65.788,   160.000,   -70.000,1.07500, 3944,   359.000,   0.00000,   0.17900,   0.00000,   0.00000,1.00000,1,  160.0,   305.000,   115.000,   3,1.0000
39672,'2 ',    25.600,     8.317,    15.000,     0.000,1.06000, 3961,    40.000,   0.00000,   0.12200,   0.00000,   0.00000,1.00000,1,   15.0,    30.000,    10.000,   3,1.0000
39675,'GT',    73.100,    33.268,    60.000,   -19.000,1.06000, 3961,   100.900,   0.00000,   0.12500,   0.00000,   0.00000,1.00000,1,   60.0,    90.000,    30.000,   3,1.0000
42404,'1 ',    11.800,     5.000,     5.000,     0.000,1.05000,    0,    20.000,   0.00000,   0.11700,   0.00000,   0.10500,1.07000,1,    5.0,    15.000,     6.000,   3,1.0000
42404,'2 ',    11.800,     5.000,     5.000,     0.000,1.05000,    0,    20.000,   0.00000,   0.11700,   0.00000,   0.10500,1.07000,1,    5.0,    15.000,     6.000,   3,1.0000
42404,'3 ',    11.800,     5.000,     5.000,     0.000,1.05000,    0,    20.000,   0.00000,   0.11700,   0.00000,   0.10000,1.07000,1,    5.0,    15.000,     6.000,   3,1.0000
42474,'4 ',    94.500,    10.508,    55.000,   -20.000,1.07500, 4462,   132.100,   0.00000,   0.13900,   0.00000,   0.00000,1.00000,1,   55.0,   118.000,    40.000,   3,1.0000
42475,'5 ',   109.000,     0.000,    55.000,   -20.000,1.07500, 4462,   132.100,   0.00000,   0.13900,   0.00000,   0.00000,1.00000,0,   55.0,   109.000,    20.000,   3,1.0000
44471,'1 ',    15.000,     0.000,     9.000,   -10.000,1.05000, 4441,    18.800,   0.00000,   0.27000,   0.00000,   0.00000,1.00000,0,    3.0,    15.000,     5.000,   3,1.0000
44471,'4 ',     1.000,     3.000,     3.000,    -1.000,1.05000, 4441,     5.000,   0.00000,   0.27000,   0.00000,   0.00000,1.00000,1,    3.0,     4.000,     1.000,   3,1.0000
44472,'2 ',    15.000,     0.000,     9.000,   -10.000,1.05000, 4441,    18.800,   0.00000,   0.27000,   0.00000,   0.00000,1.00000,0,    9.0,    15.000,     5.000,   3,1.0000
44671,'1 ',    66.500,    12.418,    65.000,   -43.000,1.07500, 4462,   150.000,   0.00000,   0.16700,   0.00000,   0.00000,1.00000,1,   65.0,   120.000,    60.000,   3,1.0000
44672,'2 ',   120.000,     0.000,    66.000,   -46.000,1.07500, 4462,   150.000,   0.00000,   0.16700,   0.00000,   0.00000,1.00000,0,   66.0,   120.000,    60.000,   3,1.0000
44673,'3 ',   270.000,     0.000,   100.000,   -48.000,1.07500, 4462,   318.800,   0.00000,   0.22500,   0.00000,   0.00000,1.00000,0,  100.0,   270.000,    60.000,   3,1.0000
46210,'1 ',     0.000,     0.000,     1.000,    -1.000,1.05000,    0,    20.000,   0.00000,   0.20000,   0.00000,   0.10000,1.00000,0,    1.0,     0.000,     0.000,   5,1.0000
47802,'1 ',    24.500,     0.000,     0.000,     0.000,1.00000,    0,    70.000,   0.00000,   0.20000,   0.00000,   0.10000,1.00000,1,  100.0,    70.000,     0.000,   4,1.0000
47802,'2 ',     8.700,     0.000,     0.000,     0.000,1.00000,    0,    24.800,   0.00000,   0.20000,   0.00000,   0.10000,1.00000,1,  100.0,    24.800,     0.000,   4,1.0000
49478,'8 ',   149.500,    67.386,    93.000,   -59.000,1.07500, 4942,   177.000,   0.00000,   0.12100,   0.00000,   0.00000,1.00000,1,   93.0,   150.000,    55.000,   3,1.0000
49604,'1 ',     1.100,    -0.460,    -0.460,    -0.460,1.05000,    0,     3.000,   0.00000,   0.20000,   0.00000,   0.20000,1.00000,1,  100.0,     3.000,     0.000,   4,1.0000
49604,'2 ',     1.100,     0.000,     0.000,     0.000,1.05000,    0,     3.000,   0.00000,   0.20000,   0.00000,   0.20000,1.00000,1,  100.0,     3.000,     0.000,   4,1.0000
50004,'1 ',     2.700,    -1.170,    -1.170,    -1.170,1.05000,    0,     7.650,   0.00000,   0.20000,   0.00000,   0.20000,1.00000,1,  100.0,     7.650,     0.000,   2,1.0000
50274,'14',   134.000,    14.328,    75.000,   -40.000,1.07500, 4462,   170.000,   0.00000,   0.16200,   0.00000,   0.00000,1.00000,1,   75.0,   150.000,    50.000,   3,1.0000
50275,'15',   134.000,    14.328,    75.000,   -60.000,1.07500, 4462,   170.000,   0.00000,   0.16200,   0.00000,   0.00000,1.00000,1,   75.0,   150.000,    50.000,   3,1.0000
50276,'16',   161.400,    15.284,    80.000,   -40.000,1.07500, 4462,   230.000,   0.00000,   0.15800,   0.00000,   0.00000,1.00000,1,   80.0,   170.000,    30.000,   3,1.0000
51471,'1 ',    60.000,     0.000,    25.000,   -10.000,1.07500, 5142,    75.000,   0.00000,   0.13500,   0.00000,   0.00000,1.00000,0,   25.0,    60.000,    30.000,   3,1.0000
51472,'2 ',    60.000,     0.000,    25.000,   -10.000,1.07500, 5142,    75.000,   0.00000,   0.13500,   0.00000,   0.00000,1.00000,0,   25.0,    60.000,    30.000,   3,1.0000
51473,'3 ',   256.000,     0.000,   110.000,   -45.000,1.07500, 5142,   294.000,   0.00000,   0.20700,   0.00000,   0.00000,1.00000,0,  110.0,   256.000,    40.000,   3,1.0000
51474,'4 ',   218.000,    54.761,   110.000,   -45.000,1.07500, 5142,   294.000,   0.00000,   0.20700,   0.00000,   0.00000,1.00000,1,  110.0,   256.000,    40.000,   3,1.0000
51771,'CT',   258.000,    53.905,   175.000,   -92.000,1.07500, 5172,   292.000,   0.00000,   0.17000,   0.00000,   0.00000,1.00000,1,  175.0,   258.000,   155.000,   4,1.0000
51772,'ST',   140.000,    30.803,   100.000,   -52.000,1.07500, 5172,   166.000,   0.00000,   0.13100,   0.00000,   0.00000,1.00000,1,  100.0,   140.000,   111.000,   4,1.0000
52071,'1 ',    20.984,    12.312,    40.000,   -35.000,1.08000,    0,    87.500,   0.00000,   0.15000,   0.00000,   0.00000,1.00000,1,   40.0,    73.000,   -73.000,   3,1.0000
52071,'2 ',    20.984,    12.312,    40.000,   -35.000,1.08000,    0,    87.500,   0.00000,   0.15000,   0.00000,   0.00000,1.00000,1,   40.0,    73.000,   -73.000,   3,1.0000
52071,'3 ',    20.984,    12.312,    40.000,   -35.000,1.08000,    0,    87.500,   0.00000,   0.15000,   0.00000,   0.00000,1.00000,1,   40.0,    73.000,   -73.000,   3,1.0000
52071,'4 ',    20.984,    12.312,    40.000,   -35.000,1.08000,    0,    87.500,   0.00000,   0.15000,   0.00000,   0.00000,1.00000,1,   40.0,    73.000,   -73.000,   3,1.0000
52204,'1 ',     4.400,     0.000,     0.000,     0.000,1.00000,    0,    12.600,   0.00000,   0.20000,   0.00000,   0.20000,1.00000,1,  100.0,    12.600,     0.000,   4,1.0000
52604,'1 ',     1.500,    -0.660,    -0.660,    -0.660,1.05000,    0,     4.300,   0.00000,   0.20000,   0.00000,   0.20000,1.00000,1,  100.0,     4.290,     0.000,   4,1.0000
52604,'2 ',     2.700,     0.000,     0.000,     0.000,1.05000,    0,     7.600,   0.00000,   0.20000,   0.00000,   0.20000,1.00000,1,  100.0,     7.600,     0.000,   4,1.0000
52804,'1 ',     5.300,    -2.290,    -2.290,    -2.290,1.05000,    0,    15.000,   0.00000,   0.20000,   0.00000,   0.20000,1.00000,1,  100.0,    15.000,     0.000,   4,1.0000
52804,'2 ',     2.400,    -1.040,    -1.040,    -1.040,1.05000,    0,     6.800,   0.00000,   0.20000,   0.00000,   0.20000,1.00000,1,  100.0,     6.800,     0.000,   2,1.0000
52804,'3 ',     1.400,    -0.610,    -0.610,    -0.610,1.05000,    0,     4.000,   0.00000,   0.20000,   0.00000,   0.20000,1.00000,1,  100.0,     4.000,     0.000,   4,1.0000
52804,'5 ',     1.800,     0.000,     0.000,     0.000,1.05000,    0,     5.100,   0.00000,   0.20000,   0.00000,   0.20000,1.00000,1,  100.0,     5.100,     0.000,   2,1.0000
53404,'1 ',     2.100,    -0.910,    -0.910,    -0.910,1.05000,    0,     6.000,   0.00000,   0.20000,   0.00000,   0.20000,1.00000,1,  100.0,     5.940,     0.000,   3,1.0000
53604,'1 ',     1.800,    -0.760,    -0.760,    -0.760,1.05000,    0,     5.000,   0.00000,   0.20000,   0.00000,   0.20000,1.00000,1,  100.0,     5.000,     0.000,   4,1.0000
53604,'2 ',     1.700,    -0.730,    -0.730,    -0.730,1.05000,    0,     4.800,   0.00000,   0.20000,   0.00000,   0.20000,1.00000,1,  100.0,     4.800,     0.000,   4,1.0000
53604,'3 ',     4.900,     0.000,     0.000,     0.000,1.05000,    0,    14.000,   0.00000,   0.20000,   0.00000,   0.20000,1.00000,1,  100.0,    14.000,     0.000,   4,1.0000
53604,'4 ',    11.000,     0.000,     0.000,     0.000,1.05000,    0,    31.500,   0.00000,   0.20000,   0.00000,   0.20000,1.00000,1,  100.0,    31.500,     0.000,   4,1.0000
54801,'1 ',     0.000,     0.000,     1.000,    -1.000,1.05000,    0,    10.000,   0.00000,   0.13000,   0.00000,   0.10000,1.00000,0,    1.0,     0.000,     0.000,   5,1.0000
55004,'1 ',     4.100,    -1.800,    -1.800,    -1.800,1.05000,    0,    11.800,   0.00000,   0.20000,   0.00000,   0.20000,1.00000,1,  100.0,    11.800,     0.000,   4,1.0000
55004,'2 ',     7.100,     0.000,     0.000,     0.000,1.05000,    0,    20.250,   0.00000,   0.20000,   0.00000,   0.20000,1.00000,1,  100.0,    20.250,     0.000,   4,1.0000
0 / END OF GENERATOR DATA, BEGIN BRANCH DATA
   11, 42404,'1 ',   0.00360,   0.00391,   0.00207, 9999.00, 9999.00,10998.90,  0.00000,  0.00000,  0.00000,  0.00000,1,   1.00,   2,1.0000
   12,-25404,'1 ',   0.00534,   0.00795,   0.00407, 9999.00, 9999.00,10998.90,  0.00000,  0.00000,  0.00000,  0.00000,1,   1.40,   1,1.0000
   12,-25404,'3 ',   0.00594,   0.00866,   0.00435, 9999.00, 9999.00,10998.90,  0.00000,  0.00000,  0.00000,  0.00000,1,   0.00,   1,1.0000
   12, 46504,'1 ',   0.02132,   0.02114,   0.00329, 9999.00, 9999.00,10998.90,  0.00000,  0.00000,  0.00000,  0.00000,1,   5.14,   1,1.0000
   12, 46504,'2 ',   0.01937,   0.01703,   0.00256, 9999.00, 9999.00,10998.90,  0.00000,  0.00000,  0.00000,  0.00000,1,   3.96,   1,1.0000
   41, -1741,'1 ',   0.00260,   0.00480,   0.07610,  100.00,  100.00,  107.00,  0.00000,  0.00000,  0.00000,  0.00000,0,   5.00,   1,1.0000
   41, -3871,'1 ',   0.00210,   0.00380,   0.06090,  100.00,  100.00,  107.00,  0.00000,  0.00000,  0.00000,  0.00000,1,   4.00,   1,1.0000
   51,  2541,'1 ',   0.00310,   0.00960,   0.03810,  140.00,  140.00,  252.00,  0.00000,  0.00000,  0.00000,  0.00000,1,   6.00,   1,1.0000
   51,  4651,'1 ',   0.00280,   0.00880,   0.03500,  140.00,  140.00,  252.00,  0.00000,  0.00000,  0.00000,  0.00000,1,   5.50,   1,1.0000
 1021,  2121,'1 ',   0.02830,   0.06260,   0.00590,  107.00,  107.00,  138.60,  0.00000,  0.00000,  0.00000,  0.00000,1,  18.20,   1,1.0000
 1021,  2361,'1 ',   0.05100,   0.11280,   0.01050,  107.00,  107.00,  117.70,  0.00000,  0.00000,  0.00000,  0.00000,1,  32.80,   1,1.0000
 1021,  3281,'1 ',   0.01480,   0.03270,   0.00310,  107.00,  107.00,  117.70,  0.00000,  0.00000,  0.00000,  0.00000,1,   9.50,   1,1.0000
 1021,  3541,'1 ',   0.01390,   0.03810,   0.01200,  107.00,  107.00,  138.60,  0.00000,  0.00000,  0.00000,  0.00000,1,  11.70,   1,1.0000
 1041,  5481,'1 ',   0.00490,   0.01070,   0.00100,  107.00,  107.00,  117.70,  0.00000,  0.00000,  0.00000,  0.00000,1,   3.10,   1,1.0000
 1042,  3202,'1 ',   0.00300,   0.02220,   0.03350,  431.00,  431.00,  474.10,  0.00000,  0.00000,  0.00000,  0.00000,1,  25.60,   1,1.0000
 1042,  3202,'2 ',   0.00300,   0.02220,   0.03350,  431.00,  431.00,  474.10,  0.00000,  0.00000,  0.00000,  0.00000,1,  25.60,   1,1.0000
 1042,  4722,'1 ',   0.00320,   0.02340,   0.03530,  431.00,  431.00,  569.80,  0.00000,  0.00000,  0.00000,  0.00000,1,  27.00,   1,1.0000
 1061, 10619,'1 ',   0.00050,   0.00120,   0.00010,   34.00,   34.00,   62.70,  0.00000,  0.00000,  0.00000,  0.00000,1,   0.30,   1,1.0000
 1081,  3281,'1 ',   0.00390,   0.01240,   0.00390,   68.00,  112.00,  121.00,  0.00000,  0.00000,  0.00000,  0.00000,1,   3.80,   1,1.0000
 1101,  2161,'1 ',   0.00310,   0.00690,   0.00060,   45.00,  107.00,  117.70,  0.00000,  0.00000,  0.00000,  0.00000,1,   2.00,   1,1.0000
 1121,  1151,'1 ',   0.00870,   0.02700,   0.10800,  140.00,  140.00,  252.00,  0.00000,  0.00000,  0.00000,  0.00000,1,  17.00,   1,1.0000
 1121,  1301,'1 ',   0.01260,   0.08920,   0.00810,  137.00,  137.00,  180.40,  0.00000,  0.00000,  0.00000,  0.00000,1,  25.00,   1,1.0000
 1121,  1541,'1 ',   0.03520,   0.07770,   0.00730,  107.00,  107.00,  138.60,  0.00000,  0.00000,  0.00000,  0.00000,1,  22.60,   1,1.0000
 1121,  4901,'1 ',   0.00350,   0.00770,   0.00080,   34.00,   34.00,   37.40,  0.00000,  0.00000,  0.00000,  0.00000,1,   2.20,   1,1.0000
 1121,  4911,'2 ',   0.00370,   0.00830,   0.00080,   34.00,   34.00,   37.40,  0.00000,  0.00000,  0.00000,  0.00000,1,   2.40,   1,1.0000
 1122,  1742,'1 ',   0.00620,   0.04620,   0.06970,  431.00,  431.00,  474.10,  0.00000,  0.00000,  0.00000,  0.00000,1,  53.30,   1,1.0000
 1122,  2742,'1 ',   0.01020,   0.07610,   0.11480,  275.00,  431.00,  569.80,  0.00000,  0.00000,  0.00000,  0.00000,1,  87.81,   1,1.0000
 1141,  3501,'1 ',   0.05400,   0.12280,   0.01160,   68.00,   93.00,  102.30,  0.00000,  0.00000,  0.00000,  0.00000,1,  35.80,   1,1.0000
 1141,  4941,'1 ',   0.02250,   0.07210,   0.00740,   93.00,   93.00,  144.10,  0.00000,  0.00000,  0.00000,  0.00000,1,  21.60,   1,1.0000
 1141, 11461,'1 ',   0.00000,   0.00010,   0.00000,  107.00,  107.00,  138.60,  0.00000,  0.00000,  0.00000,  0.00000,1,   0.00,   1,1.0000
 1161,  1171,'1 ',   0.00060,   0.00160,   0.00640,  140.00,  140.00,  252.00,  0.00000,  0.00000,  0.00000,  0.00000,1,   1.00,   1,1.0000
 1161,  1191,'2 ',   0.00060,   0.00160,   0.00640,  140.00,  140.00,  252.00,  0.00000,  0.00000,  0.00000,  0.00000,1,   1.00,   1,1.0000
...